  29
        -45.34443301
 C         -2.4031856375        0.1998677322       -1.4285739808
 C         -1.9341822974        0.2080698702        0.0191698018
 H         -2.5764495118        1.2177456287       -1.7620226881
 H         -3.3270692818       -0.3647769119       -1.4984259356
 H         -1.6565738039       -0.2607139330       -2.0700385680
 C         -2.9421331573        0.8526766767        0.9656310136
 H         -2.5286546931        0.9146127454        1.9699395990
 H         -3.8471955248        0.2527992167        0.9826463219
 H         -3.1816531702        1.8547775730        0.6267547623
 O         -1.6623738836       -1.1306970905        0.3911718577
 O         -0.7703209222        0.9951451582        0.2184795083
 O          0.2576947003        0.6852259033       -0.7395447490
 C          1.4939370501        0.7995066395       -0.2924160324
 C          1.7903856681        1.7347105474        0.8330379966
 H          1.5398575813        2.7419558755        0.5020714812
 H          2.8419050227        1.6974171345        1.0988428195
 H          1.1693545245        1.5131565629        1.6991241792
 C          2.4610423910        0.7312744474       -1.4378037102
 H          3.4318745622        0.3903728467       -1.0926746888
 H          2.5695992803        1.7284422542       -1.8594914509
 H          2.0903220077        0.0641865076       -2.2109185541
 H         -1.5144476068       -1.1782559714        1.3466198006
 O          1.8589525398       -0.8343316324        0.4188879291
 O          1.2702957100       -1.0097412087        1.6803867054
 H          2.0021004769       -0.9243908226        2.3106318869
 H          1.1628145645       -1.5948251852       -0.2688710696
 O          0.3217822105       -2.2858055209       -0.8749665054
 H          0.3977769298       -3.2216548876       -0.6511243235
 H         -0.5471825162       -1.9356566427       -0.5158305616
  29
        -45.34435327
 C         -2.4056114300        0.2019961666       -1.4280660570
 C         -1.9355585262        0.2083509378        0.0193867394
 H         -1.6596485042       -0.2586382151       -2.0702550312
 H         -2.5787204951        1.2202158309       -1.7605679134
 H         -3.3297271088       -0.3623071357       -1.4977477621
 C         -2.9418489280        0.8538079743        0.9670868293
 H         -2.5268574911        0.9157819814        1.9707901266
 H         -3.8471430391        0.2542723002        0.9855873829
 H         -3.1815572066        1.8559058048        0.6282916831
 O         -1.6631212622       -1.1295679006        0.3897253940
 O         -0.7709597506        0.9961950506        0.2176938002
 O          0.2570088270        0.6843547495       -0.7393543676
 C          1.4922681105        0.8001663388       -0.2934626584
 C          1.7890754465        1.7346437288        0.8321538679
 H          1.5346169975        2.7414911067        0.5027781137
 H          2.8412714184        1.7003056500        1.0955644134
 H          1.1704694220        1.5107952802        1.6994322253
 C          2.4601715353        0.7282837585       -1.4376715150
 H          2.0892033896        0.0600995990       -2.2097553795
 H          3.4305755094        0.3873093397       -1.0913306211
 H          2.5702007938        1.7245284285       -1.8613293954
 H         -1.5209499950       -1.1797500848        1.3458010718
 O          1.8583675038       -0.8346961266        0.4217232842
 O          1.2728218881       -1.0093732614        1.6850046564
 H          2.0074391030       -0.9309485806        2.3130695989
 H          1.1737615169       -1.5864949318       -0.2595071674
 O          0.3271025446       -2.2873685029       -0.8803214460
 H         -0.5427146742       -1.9424571131       -0.5256945271
 H          0.4015838799       -3.2245442305       -0.6633455204
  29
        -45.34426778
 C         -2.4064280776        0.2044986460       -1.4279412019
 C         -1.9365510705        0.2085882038        0.0196008831
 H         -2.5739517163        1.2235651250       -1.7607694804
 H         -3.3335321781       -0.3548561748       -1.4977268795
 H         -1.6628712034       -0.2606151475       -2.0696941836
 C         -2.9422659611        0.8541241421        0.9678875302
 H         -3.1814278294        1.8566297360        0.6299058177
 H         -2.5272413338        0.9148977013        1.9716540579
 H         -3.8479054891        0.2550881863        0.9859435858
 O         -1.6635358212       -1.1286918731        0.3882194350
 O         -0.7715139877        0.9971489528        0.2180871679
 O          0.2562924112        0.6846207623       -0.7385361283
 C          1.4908326976        0.8015756903       -0.2944427758
 C          1.7893239779        1.7347268520        0.8315038986
 H          1.1686568669        1.5129684637        1.6978489022
 H          1.5386511545        2.7424758097        0.5018020507
 H          2.8410438470        1.6972469678        1.0963622201
 C          2.4586728353        0.7263018804       -1.4381671384
 H          3.4297433905        0.3880825217       -1.0909779337
 H          2.5673931139        1.7211836180       -1.8655053302
 H          2.0883526574        0.0550640791       -2.2079431433
 H         -1.5236212027       -1.1807221148        1.3444795518
 O          1.8579234702       -0.8353141333        0.4234218391
 O          1.2736821791       -1.0085189158        1.6878023398
 H          2.0100634690       -0.9360118098        2.3146296275
 H          1.1834737981       -1.5814382442       -0.2508855560
 O          0.3314288869       -2.2909972695       -0.8834237394
 H         -0.5390083132       -1.9491854031       -0.5329851826
 H          0.4039848224       -3.2288126151       -0.6700616156
  29
        -45.34417975
 C         -2.4074124777        0.2035101480       -1.4274938183
 C         -1.9374321452        0.2089388661        0.0200482382
 H         -2.5747069840        1.2221797584       -1.7616465818
 H         -3.3346342397       -0.3557529820       -1.4964934968
 H         -1.6640641353       -0.2628837637       -2.0685667728
 C         -2.9426902654        0.8562748884        0.9676572668
 H         -3.8482958686        0.2572285578        0.9871216515
 H         -3.1820620702        1.8581676452        0.6280222876
 H         -2.5272950747        0.9187080468        1.9711628899
 O         -1.6631157953       -1.1267177385        0.3896713006
 O         -0.7723508218        0.9993288997        0.2169141576
 O          0.2557574708        0.6850666510       -0.7383738823
 C          1.4892191810        0.8031084634       -0.2952215661
 C          1.7881462055        1.7339692975        0.8321140400
 H          2.8402626479        1.6978217636        1.0954758104
 H          1.1688989252        1.5096475005        1.6988599636
 H          1.5351591185        2.7420401775        0.5049693567
 C          2.4579841352        0.7252293184       -1.4376260944
 H          3.4290380573        0.3881979515       -1.0892158522
 H          2.5668772973        1.7193223926       -1.8669286056
 H          2.0883059220        0.0525188825       -2.2064579292
 H         -1.5254347159       -1.1788126397        1.3461748233
 O          1.8572888560       -0.8364585008        0.4246190467
 O          1.2760536539       -1.0091640452        1.6907136842
 H          2.0153128687       -0.9451777097        2.3152190725
 H          1.1928922959       -1.5750723133       -0.2429517718
 O          0.3344877024       -2.2936629860       -0.8884703349
 H         -0.5362363965       -1.9564933911       -0.5406487753
 H          0.4055252189       -3.2328627834       -0.6824873374
  29
        -45.34409975
 C         -2.4084052294        0.2051693661       -1.4275477054
 C         -1.9386234788        0.2092187164        0.0201058907
 H         -3.3350388936       -0.3549799266       -1.4972676280
 H         -1.6645400221       -0.2600583760       -2.0688600304
 H         -2.5766470035        1.2240118913       -1.7606919852
 C         -2.9432305672        0.8573837761        0.9678345540
 H         -3.8502970239        0.2604812011        0.9852582663
 H         -3.1798723134        1.8604537099        0.6297356159
 H         -2.5287824785        0.9169737745        1.9719149952
 O         -1.6645438179       -1.1259755388        0.3887869980
 O         -0.7728826945        0.9997310935        0.2169956032
 O          0.2552066361        0.6844577826       -0.7376364490
 C          1.4880218860        0.8042885686       -0.2960225474
 C          1.7876671745        1.7340913811        0.8316257990
 H          2.8397860043        1.6975404045        1.0948727999
 H          1.1682715288        1.5096866103        1.6982610865
 H          1.5350317369        2.7425061668        0.5050827566
 C          2.4568294994        0.7237253072       -1.4378788028
 H          3.4287252562        0.3901821940       -1.0884725938
 H          2.5636619916        1.7164429341       -1.8710108359
 H          2.0883803526        0.0475239011       -2.2042605773
 H         -1.5314355119       -1.1799584327        1.3457623495
 O          1.8578232725       -0.8373821139        0.4264380765
 O          1.2790617038       -1.0089316466        1.6939381255
 H          2.0202405714       -0.9492796442        2.3166991192
 H          1.2005699016       -1.5703291540       -0.2360037497
 O          0.3375282226       -2.2953308997       -0.8918237425
 H         -0.5338403869       -1.9616492937       -0.5468936889
 H          0.4068884736       -3.2357399704       -0.6920893023
  29
        -45.34400599
 C         -2.4098333540        0.2062852165       -1.4273100630
 C         -1.9395932544        0.2096275863        0.0202186701
 H         -2.5743444305        1.2254709409       -1.7613053871
 H         -3.3385635143       -0.3504684430       -1.4963498157
 H         -1.6679142885       -0.2625012357       -2.0682951800
 C         -2.9431592280        0.8588214208        0.9683817880
 H         -2.5275304738        0.9195172223        1.9719133081
 H         -3.8500976070        0.2617621674        0.9875395955
 H         -3.1804346156        1.8614625270        0.6294497626
 O         -1.6650260179       -1.1247481862        0.3884278471
 O         -0.7733838825        1.0008626228        0.2162234315
 O          0.2547063857        0.6841942405       -0.7375502633
 C          1.4866382081        0.8059639287       -0.2971325215
 C          1.7862648465        1.7340562212        0.8314948598
 H          1.5302583186        2.7424598175        0.5073312876
 H          2.8389020013        1.6998079577        1.0928766205
 H          1.1688236378        1.5067194555        1.6988030857
 C          2.4562436358        0.7228535906       -1.4377260923
 H          2.5640448372        1.7149381592       -1.8722401663
 H          2.0880023487        0.0458060966       -2.2034839940
 H          3.4278262548        0.3895388694       -1.0871894941
 H         -1.5348910824       -1.1799116654        1.3456861960
 O          1.8580829534       -0.8385899668        0.4282643206
 O          1.2813060941       -1.0094057190        1.6969393529
 H          2.0244878498       -0.9562762772        2.3180113904
 H          1.2085649286       -1.5659008268       -0.2291303442
 O          0.3405979092       -2.2980021474       -0.8952615730
 H          0.4082553772       -3.2395465489       -0.7016519264
 H         -0.5313065167       -1.9676893809       -0.5531262781
